!-Generator IDFEditor 1.51
!-Option SortedOrder

!-NOTE: All comments with '!-' are ignored by the IDFEditor and are generated automatically.
!-      Use '!' comments if they need to be retained when using the IDFEditor.


!-   ===========  ALL OBJECTS IN CLASS: VERSION ===========

Version,
    9.3;                     !- Version Identifier


!-   ===========  ALL OBJECTS IN CLASS: SIMULATIONCONTROL ===========

SimulationControl,
    No,                      !- Do Zone Sizing Calculation
    No,                      !- Do System Sizing Calculation
    No,                      !- Do Plant Sizing Calculation
    Yes,                     !- Run Simulation for Sizing Periods
    Yes;                     !- Run Simulation for Weather File Run Periods


!-   ===========  ALL OBJECTS IN CLASS: BUILDING ===========

Building,
    unifamiliar,             !- Name
    0.0,                     !- North Axis {deg}
    Ocean,                   !- Terrain
    0.04,                    !- Loads Convergence Tolerance Value {W}
    0.4,                     !- Temperature Convergence Tolerance Value {deltaC}
    FullInteriorAndExteriorWithReflections,  !- Solar Distribution
    25,                      !- Maximum Number of Warmup Days
    6;                       !- Minimum Number of Warmup Days


!-   ===========  ALL OBJECTS IN CLASS: TIMESTEP ===========

Timestep,
    6;                       !- Number of Timesteps per Hour


!-   ===========  ALL OBJECTS IN CLASS: SITE:LOCATION ===========

Site:Location,
    Maceio_AL_BRA Design_Conditions,  !- Name
    -9.67,                   !- Latitude {deg}
    -35.74,                  !- Longitude {deg}
    -3.0,                    !- Time Zone {hr}
    64.00;                   !- Elevation {m}


!-   ===========  ALL OBJECTS IN CLASS: RUNPERIOD ===========

RunPeriod,
    Padrao,                  !- Name
    1,                       !- Begin Month
    1,                       !- Begin Day of Month
    ,                        !- Begin Year
    12,                      !- End Month
    31,                      !- End Day of Month
    ,                        !- End Year
    Monday,                  !- Day of Week for Start Day
    No,                      !- Use Weather File Holidays and Special Days
    Yes,                     !- Use Weather File Daylight Saving Period
    No,                      !- Apply Weekend Holiday Rule
    No,                      !- Use Weather File Rain Indicators
    No,                      !- Use Weather File Snow Indicators
    No;                      !- Treat Weather as Actual


!-   ===========  ALL OBJECTS IN CLASS: RUNPERIODCONTROL:DAYLIGHTSAVINGTIME ===========

! Daylight Saving Period in US
RunPeriodControl:DaylightSavingTime,
    2nd Sunday in March,     !- Start Date
    1st Sunday in November;  !- End Date


!-   ===========  ALL OBJECTS IN CLASS: SCHEDULETYPELIMITS ===========

ScheduleTypeLimits,
    Any Number;              !- Name

ScheduleTypeLimits,
    Fraction,                !- Name
    0.0,                     !- Lower Limit Value
    1.0,                     !- Upper Limit Value
    CONTINUOUS;              !- Numeric Type

ScheduleTypeLimits,
    Temperature,             !- Name
    -60,                     !- Lower Limit Value
    200,                     !- Upper Limit Value
    CONTINUOUS;              !- Numeric Type

ScheduleTypeLimits,
    On/Off,                  !- Name
    0,                       !- Lower Limit Value
    1,                       !- Upper Limit Value
    DISCRETE;                !- Numeric Type

ScheduleTypeLimits,
    Control Type,            !- Name
    0,                       !- Lower Limit Value
    4,                       !- Upper Limit Value
    DISCRETE;                !- Numeric Type

ScheduleTypeLimits,
    Humidity,                !- Name
    10,                      !- Lower Limit Value
    90,                      !- Upper Limit Value
    CONTINUOUS;              !- Numeric Type

ScheduleTypeLimits,
    Number;                  !- Name

ScheduleTypeLimits,
    Ocupacao,                !- Name
    0,                       !- Lower Limit Value
    1,                       !- Upper Limit Value
    Continuous,              !- Numeric Type
    Percent;                 !- Unit Type

ScheduleTypeLimits,
    atividade,               !- Name
    0,                       !- Lower Limit Value
    1000,                    !- Upper Limit Value
    Continuous,              !- Numeric Type
    ActivityLevel;           !- Unit Type

ScheduleTypeLimits,
    faixa_temp,              !- Name
    0,                       !- Lower Limit Value
    50,                      !- Upper Limit Value
    Continuous,              !- Numeric Type
    Temperature;             !- Unit Type


!-   ===========  ALL OBJECTS IN CLASS: SCHEDULE:COMPACT ===========

Schedule:Compact,
    Always On,               !- Name
    On/Off,                  !- Schedule Type Limits Name
    Through: 12/31,          !- Field 1
    For: AllDays,            !- Field 2
    Until: 24:00,            !- Field 3
    1;                       !- Field 4

Schedule:Compact,
    Always Off,              !- Name
    On/Off,                  !- Schedule Type Limits Name
    Through: 12/31,          !- Field 1
    For: AllDays,            !- Field 2
    Until: 24:00,            !- Field 3
    0;                       !- Field 4

Schedule:Compact,
    sch_ocup_sala,           !- Name
    Ocupacao,                !- Schedule Type Limits Name
    Through: 12/31,          !- Field 1
    For: AllDays,            !- Field 2
    Until: 14:00,            !- Field 3
    0,                       !- Field 4
    Until: 18:00,            !- Field 5
    0.5,                     !- Field 6
    Until: 22:00,            !- Field 7
    1,                       !- Field 8
    Until: 24:00,            !- Field 9
    0;                       !- Field 10

Schedule:Compact,
    sch_ocup_dorm,           !- Name
    Ocupacao,                !- Schedule Type Limits Name
    Through: 12/31,          !- Field 1
    For: AllDays,            !- Field 2
    Until: 08:00,            !- Field 3
    1,                       !- Field 4
    Until: 22:00,            !- Field 5
    0,                       !- Field 6
    Until 24:00,             !- Field 7
    1;                       !- Field 8

Schedule:Compact,
    sch_ilum_sala,           !- Name
    On/Off,                  !- Schedule Type Limits Name
    Through: 12/31,          !- Field 1
    For: AllDays,            !- Field 2
    Until: 16:00,            !- Field 3
    0,                       !- Field 4
    Until: 22:00,            !- Field 5
    1,                       !- Field 6
    Until: 24:00,            !- Field 7
    0;                       !- Field 8

Schedule:Compact,
    sch_ilum_dorm,           !- Name
    On/Off,                  !- Schedule Type Limits Name
    Through: 12/31,          !- Field 1
    For: AllDays,            !- Field 2
    Until: 06:00,            !- Field 3
    0,                       !- Field 4
    Until: 08:00,            !- Field 5
    1,                       !- Field 6
    Until: 22:00,            !- Field 7
    0,                       !- Field 8
    Until: 24:00,            !- Field 9
    1;                       !- Field 10

Schedule:Compact,
    sch_equip_sala,          !- Name
    On/Off,                  !- Schedule Type Limits Name
    Through: 12/31,          !- Field 1
    For:AllDays,             !- Field 2
    Until: 14:00,            !- Field 3
    0,                       !- Field 4
    Until: 22:00,            !- Field 5
    1,                       !- Field 6
    Until: 24:00,            !- Field 7
    0;                       !- Field 8

Schedule:Compact,
    sch_vn_tempcontrole_janela,  !- Name
    faixa_temp,              !- Schedule Type Limits Name
    Through: 12/31,          !- Field 1
    For: AllDays,            !- Field 2
    Until: 24:00,            !- Field 3
    19;                      !- Field 4

Schedule:Compact,
    sch_ocup_misto,          !- Name
    Ocupacao,                !- Schedule Type Limits Name
    Through: 12/31,          !- Field 1
    For: AllDays,            !- Field 2
    Until: 08:00,            !- Field 3
    1,                       !- Field 4
    Until: 14:00,            !- Field 5
    0,                       !- Field 6
    Until: 18:00,            !- Field 7
    .5,                      !- Field 8
    Until: 24:00,            !- Field 9
    1;                       !- Field 10

Schedule:Compact,
    sch_equip_misto,         !- Name
    On/Off,                  !- Schedule Type Limits Name
    Through: 12/31,          !- Field 1
    For:AllDays,             !- Field 2
    Until: 14:00,            !- Field 3
    0,                       !- Field 4
    Until: 22:00,            !- Field 5
    1,                       !- Field 6
    Until: 24:00,            !- Field 7
    0;                       !- Field 8

Schedule:Compact,
    sch_vn_sala,             !- Name
    On/Off,                  !- Schedule Type Limits Name
    Through: 12/31,          !- Field 1
    For: AllDays,            !- Field 2
    Until: 14:00,            !- Field 3
    0,                       !- Field 4
    Until: 22:00,            !- Field 5
    1,                       !- Field 6
    Until: 24:00,            !- Field 7
    0;                       !- Field 8

Schedule:Compact,
    sch_vn_dorm,             !- Name
    On/Off,                  !- Schedule Type Limits Name
    Through: 12/31,          !- Field 1
    For: AllDays,            !- Field 2
    Until:  8:00,            !- Field 3
    1,                       !- Field 4
    Until: 22:00,            !- Field 5
    0,                       !- Field 6
    Until: 24:00,            !- Field 7
    1;                       !- Field 8

Schedule:Compact,
    sch_vn_misto,            !- Name
    On/Off,                  !- Schedule Type Limits Name
    Through: 12/31,          !- Field 1
    For: AllDays,            !- Field 2
    Until:  8:00,            !- Field 3
    1,                       !- Field 4
    Until: 14:00,            !- Field 5
    0,                       !- Field 6
    Until: 24:00,            !- Field 7
    1;                       !- Field 8

Schedule:Compact,
    sch_ilum_mist,           !- Name
    On/Off,                  !- Schedule Type Limits Name
    Through: 12/31,          !- Field 1
    For: AllDays,            !- Field 2
    Until: 06:00,            !- Field 3
    0,                       !- Field 4
    Until: 08:00,            !- Field 5
    1,                       !- Field 6
    Until: 16:00,            !- Field 7
    0,                       !- Field 8
    Until: 24:00,            !- Field 9
    1;                       !- Field 10

Schedule:Compact,
    sch_ativ_sala,           !- Name
    atividade,               !- Schedule Type Limits Name
    Through: 12/31,          !- Field 1
    For:AllDays,             !- Field 2
    Until: 24:00,            !- Field 3
    108;                     !- Field 4

Schedule:Compact,
    sch_ativ_dorm,           !- Name
    atividade,               !- Schedule Type Limits Name
    Through: 12/31,          !- Field 1
    For:AllDays,             !- Field 2
    Until: 24:00,            !- Field 3
    81;                      !- Field 4

Schedule:Compact,
    sch_ativ_misto,          !- Name
    atividade,               !- Schedule Type Limits Name
    Through: 12/31,          !- Field 1
    For:AllDays,             !- Field 2
    Until: 8:00,             !- Field 3
    81,                      !- Field 4
    Until: 14:00,            !- Field 5
    0,                       !- Field 6
    Until: 22:00,            !- Field 7
    108,                     !- Field 8
    Until: 24:00,            !- Field 9
    81;                      !- Field 10


!-   ===========  ALL OBJECTS IN CLASS: MATERIAL ===========

Material,
    porta de madeira_3cm,    !- Name
    Smooth,                  !- Roughness
    0.03,                    !- Thickness {m}
    0.29,                    !- Conductivity {W/m-K}
    800,                     !- Density {kg/m3}
    1340,                    !- Specific Heat {J/kg-K}
    0.9,                     !- Thermal Absorptance
    0.5,                     !- Solar Absorptance
    0.5;                     !- Visible Absorptance

Material,
    gesso acart-1.25,        !- Name
    Smooth,                  !- Roughness
    0.0125,                  !- Thickness {m}
    0.35,                    !- Conductivity {W/m-K}
    1000,                    !- Density {kg/m3}
    840,                     !- Specific Heat {J/kg-K}
    0.9,                     !- Thermal Absorptance
    0.3,                     !- Solar Absorptance
    0.3;                     !- Visible Absorptance

Material,
    contrapiso-3,            !- Name
    Rough,                   !- Roughness
    0.03,                    !- Thickness {m}
    1.15,                    !- Conductivity {W/m-K}
    1700,                    !- Density {kg/m3}
    1000,                    !- Specific Heat {J/kg-K}
    0.9,                     !- Thermal Absorptance
    0.8,                     !- Solar Absorptance
    0.8;                     !- Visible Absorptance

Material,
    Telha Fibrocimento,      !- Name
    MediumRough,             !- Roughness
    0.008,                   !- Thickness {m}
    0.65,                    !- Conductivity {W/m-K}
    1700,                    !- Density {kg/m3}
    840,                     !- Specific Heat {J/kg-K}
    0.9,                     !- Thermal Absorptance
    0.5,                     !- Solar Absorptance
    0.5;                     !- Visible Absorptance

Material,
    arg gesso 3,             !- Name
    MediumSmooth,            !- Roughness
    0.03,                    !- Thickness {m}
    0.7,                     !- Conductivity {W/m-K}
    1200,                    !- Density {kg/m3}
    840,                     !- Specific Heat {J/kg-K}
    0.9,                     !- Thermal Absorptance
    0.3,                     !- Solar Absorptance
    0.3;                     !- Visible Absorptance

Material,
    bce camada,              !- Name
    MediumRough,             !- Roughness
    0.013,                   !- Thickness {m}
    0.9,                     !- Conductivity {W/m-K}
    1600,                    !- Density {kg/m3}
    920,                     !- Specific Heat {J/kg-K}
    0.9,                     !- Thermal Absorptance
    0.7,                     !- Solar Absorptance
    0.7;                     !- Visible Absorptance

Material,
    ceramica fach cinza,     !- Name
    Smooth,                  !- Roughness
    0.01,                    !- Thickness {m}
    1.05,                    !- Conductivity {W/m-K}
    2500,                    !- Density {kg/m3}
    920,                     !- Specific Heat {J/kg-K}
    0.9,                     !- Thermal Absorptance
    0.8,                     !- Solar Absorptance
    0.8;                     !- Visible Absorptance

Material,
    argamassa 3,             !- Name
    Rough,                   !- Roughness
    0.03,                    !- Thickness {m}
    1.15,                    !- Conductivity {W/m-K}
    1900,                    !- Density {kg/m3}
    1000,                    !- Specific Heat {J/kg-K}
    0.9,                     !- Thermal Absorptance
    0.3,                     !- Solar Absorptance
    0.3;                     !- Visible Absorptance

Material,
    arg gesso 1.5,           !- Name
    MediumSmooth,            !- Roughness
    0.015,                   !- Thickness {m}
    0.7,                     !- Conductivity {W/m-K}
    1200,                    !- Density {kg/m3}
    840,                     !- Specific Heat {J/kg-K}
    0.9,                     !- Thermal Absorptance
    0.3,                     !- Solar Absorptance
    0.3;                     !- Visible Absorptance

Material,
    laje concreto,           !- Name
    Rough,                   !- Roughness
    0.05,                    !- Thickness {m}
    1.75,                    !- Conductivity {W/m-K}
    2500,                    !- Density {kg/m3}
    1000,                    !- Specific Heat {J/kg-K}
    0.9,                     !- Thermal Absorptance
    0.8,                     !- Solar Absorptance
    0.8;                     !- Visible Absorptance

Material,
    argamassa 2.5,           !- Name
    Rough,                   !- Roughness
    0.025,                   !- Thickness {m}
    1.15,                    !- Conductivity {W/m-K}
    1900,                    !- Density {kg/m3}
    1000,                    !- Specific Heat {J/kg-K}
    0.9,                     !- Thermal Absorptance
    0.3,                     !- Solar Absorptance
    0.3;                     !- Visible Absorptance

Material,
    ceramica fach mad,       !- Name
    Smooth,                  !- Roughness
    0.01,                    !- Thickness {m}
    1.05,                    !- Conductivity {W/m-K}
    2500,                    !- Density {kg/m3}
    920,                     !- Specific Heat {J/kg-K}
    0.9,                     !- Thermal Absorptance
    0.6,                     !- Solar Absorptance
    0.6;                     !- Visible Absorptance

Material,
    ceramica interna,        !- Name
    Smooth,                  !- Roughness
    0.01,                    !- Thickness {m}
    1.05,                    !- Conductivity {W/m-K}
    2500,                    !- Density {kg/m3}
    920,                     !- Specific Heat {J/kg-K}
    0.9,                     !- Thermal Absorptance
    0.3,                     !- Solar Absorptance
    0.3;                     !- Visible Absorptance

Material,
    regulari-2,              !- Name
    Rough,                   !- Roughness
    0.02,                    !- Thickness {m}
    1.15,                    !- Conductivity {W/m-K}
    1700,                    !- Density {kg/m3}
    1000,                    !- Specific Heat {J/kg-K}
    0.9,                     !- Thermal Absorptance
    0.8,                     !- Solar Absorptance
    0.8;                     !- Visible Absorptance

Material,
    la de rocha 7,           !- Name
    MediumRough,             !- Roughness
    0.07,                    !- Thickness {m}
    0.045,                   !- Conductivity {W/m-K}
    100,                     !- Density {kg/m3}
    750,                     !- Specific Heat {J/kg-K}
    0.9,                     !- Thermal Absorptance
    0.7,                     !- Solar Absorptance
    0.7;                     !- Visible Absorptance

Material,
    la de rocha 9,           !- Name
    MediumRough,             !- Roughness
    0.09,                    !- Thickness {m}
    0.045,                   !- Conductivity {W/m-K}
    100,                     !- Density {kg/m3}
    750,                     !- Specific Heat {J/kg-K}
    0.9,                     !- Thermal Absorptance
    0.7,                     !- Solar Absorptance
    0.7;                     !- Visible Absorptance

Material,
    memb betuminosa,         !- Name
    MediumRough,             !- Roughness
    0.004,                   !- Thickness {m}
    0.23,                    !- Conductivity {W/m-K}
    1100,                    !- Density {kg/m3}
    1460,                    !- Specific Heat {J/kg-K}
    0.9,                     !- Thermal Absorptance
    0.9,                     !- Solar Absorptance
    0.9;                     !- Visible Absorptance


!-   ===========  ALL OBJECTS IN CLASS: MATERIAL:NOMASS ===========

Material:NoMass,
    ref_isolamento_R0.67,    !- Name
    Smooth,                  !- Roughness
    0.67,                    !- Thermal Resistance {m2-K/W}
    0.9,                     !- Thermal Absorptance
    0.7,                     !- Solar Absorptance
    0.7;                     !- Visible Absorptance


!-   ===========  ALL OBJECTS IN CLASS: MATERIAL:AIRGAP ===========

Material:AirGap,
    ar_asc_ maior 5cm,       !- Name
    0.21;                    !- Thermal Resistance {m2-K/W}

Material:AirGap,
    ref_camara_ar_cob,       !- Name
    0.21;                    !- Thermal Resistance {m2-K/W}

Material:AirGap,
    ar_alv cer 11.5,         !- Name
    0.227;                   !- Thermal Resistance {m2-K/W}

Material:AirGap,
    ar_desc_ maior 5cm,      !- Name
    0.21;                    !- Thermal Resistance {m2-K/W}


!-   ===========  ALL OBJECTS IN CLASS: WINDOWMATERIAL:SIMPLEGLAZINGSYSTEM ===========

WindowMaterial:SimpleGlazingSystem,
    vidro_ref,               !- Name
    5.7,                     !- U-Factor {W/m2-K}
    0.87;                    !- Solar Heat Gain Coefficient


!-   ===========  ALL OBJECTS IN CLASS: WINDOWMATERIAL:GLAZING ===========

WindowMaterial:Glazing,
    cebrace st 167,          !- Name
    SpectralAverage,         !- Optical Data Type
    ,                        !- Window Glass Spectral Data Set Name
    0.006,                   !- Thickness {m}
    0.57,                    !- Solar Transmittance at Normal Incidence
    0.12,                    !- Front Side Solar Reflectance at Normal Incidence
    0.1,                     !- Back Side Solar Reflectance at Normal Incidence
    0.69,                    !- Visible Transmittance at Normal Incidence
    0.13,                    !- Front Side Visible Reflectance at Normal Incidence
    0.12,                    !- Back Side Visible Reflectance at Normal Incidence
    ,                        !- Infrared Transmittance at Normal Incidence
    0.837,                   !- Front Side Infrared Hemispherical Emissivity
    0.821,                   !- Back Side Infrared Hemispherical Emissivity
    0.9,                     !- Conductivity {W/m-K}
    1,                       !- Dirt Correction Factor for Solar and Visible Transmittance
    No,                      !- Solar Diffusing
    72000000000,             !- Young's modulus {Pa}
    0.22;                    !- Poisson's ratio


!-   ===========  ALL OBJECTS IN CLASS: CONSTRUCTION ===========

Construction,
    par ext cinza,           !- Name
    ceramica fach cinza,     !- Outside Layer
    argamassa 3,             !- Layer 2
    bce camada,              !- Layer 3
    ar_alv cer 11.5,         !- Layer 4
    bce camada,              !- Layer 5
    arg gesso 1.5;           !- Layer 6

Construction,
    par ext molh,            !- Name
    ceramica fach mad,       !- Outside Layer
    argamassa 3,             !- Layer 2
    bce camada,              !- Layer 3
    ar_alv cer 11.5,         !- Layer 4
    bce camada,              !- Layer 5
    argamassa 2.5,           !- Layer 6
    ceramica interna;        !- Layer 7

Construction,
    par int,                 !- Name
    gesso acart-1.25,        !- Outside Layer
    la de rocha 7,           !- Layer 2
    gesso acart-1.25;        !- Layer 3

Construction,
    par int molh,            !- Name
    gesso acart-1.25,        !- Outside Layer
    la de rocha 7,           !- Layer 2
    gesso acart-1.25,        !- Layer 3
    argamassa 2.5,           !- Layer 4
    ceramica interna;        !- Layer 5

Construction,
    piso,                    !- Name
    gesso acart-1.25,        !- Outside Layer
    ar_desc_ maior 5cm,      !- Layer 2
    laje concreto,           !- Layer 3
    contrapiso-3,            !- Layer 4
    ceramica interna;        !- Layer 5

Construction,
    forro,                   !- Name
    ceramica interna,        !- Outside Layer
    contrapiso-3,            !- Layer 2
    laje concreto,           !- Layer 3
    ar_desc_ maior 5cm,      !- Layer 4
    gesso acart-1.25;        !- Layer 5

Construction,
    cob,                     !- Name
    ceramica interna,        !- Outside Layer
    contrapiso-3,            !- Layer 2
    memb betuminosa,         !- Layer 3
    regulari-2,              !- Layer 4
    laje concreto,           !- Layer 5
    ar_desc_ maior 5cm,      !- Layer 6
    gesso acart-1.25;        !- Layer 7

Construction,
    Exterior Window,         !- Name
    cebrace st 167;          !- Outside Layer

Construction,
    Interior Door,           !- Name
    porta de madeira_3cm;    !- Outside Layer

Construction,
    Exterior Door,           !- Name
    cebrace st 167;          !- Outside Layer

Construction,
    par euh,                 !- Name
    gesso acart-1.25,        !- Outside Layer
    gesso acart-1.25,        !- Layer 2
    la de rocha 9,           !- Layer 3
    gesso acart-1.25,        !- Layer 4
    gesso acart-1.25;        !- Layer 5

Construction,
    par ext mad,             !- Name
    ceramica fach mad,       !- Outside Layer
    argamassa 3,             !- Layer 2
    bce camada,              !- Layer 3
    ar_alv cer 11.5,         !- Layer 4
    bce camada,              !- Layer 5
    arg gesso 1.5;           !- Layer 6

Construction,
    par circ,                !- Name
    gesso acart-1.25,        !- Outside Layer
    la de rocha 7,           !- Layer 2
    gesso acart-1.25;        !- Layer 3


!-   ===========  ALL OBJECTS IN CLASS: GLOBALGEOMETRYRULES ===========

GlobalGeometryRules,
    LowerLeftCorner,         !- Starting Vertex Position
    Counterclockwise,        !- Vertex Entry Direction
    Relative,                !- Coordinate System
    Relative,                !- Daylighting Reference Point Coordinate System
    Relative;                !- Rectangular Surface Coordinate System


!-   ===========  ALL OBJECTS IN CLASS: ZONE ===========

Zone,
    105 suite,               !- Name
    0.0,                     !- Direction of Relative North {deg}
    0.0,                     !- X Origin {m}
    0.0,                     !- Y Origin {m}
    0.0,                     !- Z Origin {m}
    ,                        !- Type
    1,                       !- Multiplier
    ,                        !- Ceiling Height {m}
    ,                        !- Volume {m3}
    12.49;                   !- Floor Area {m2}

Zone,
    105 quarto,              !- Name
    0.0,                     !- Direction of Relative North {deg}
    0.0,                     !- X Origin {m}
    0.0,                     !- Y Origin {m}
    0.0,                     !- Z Origin {m}
    ,                        !- Type
    1,                       !- Multiplier
    ,                        !- Ceiling Height {m}
    ,                        !- Volume {m3}
    10.4;                    !- Floor Area {m2}

Zone,
    105 sala,                !- Name
    0.0,                     !- Direction of Relative North {deg}
    0.0,                     !- X Origin {m}
    0.0,                     !- Y Origin {m}
    0.0,                     !- Z Origin {m}
    ,                        !- Type
    1,                       !- Multiplier
    ,                        !- Ceiling Height {m}
    ,                        !- Volume {m3}
    26.93;                   !- Floor Area {m2}

Zone,
    105 wc 2,                !- Name
    0.0,                     !- Direction of Relative North {deg}
    0.0,                     !- X Origin {m}
    0.0,                     !- Y Origin {m}
    0.0,                     !- Z Origin {m}
    ,                        !- Type
    1,                       !- Multiplier
    ,                        !- Ceiling Height {m}
    ,                        !- Volume {m3}
    6.16;                    !- Floor Area {m2}

Zone,
    105 wc 1,                !- Name
    0.0,                     !- Direction of Relative North {deg}
    0.0,                     !- X Origin {m}
    0.0,                     !- Y Origin {m}
    0.0,                     !- Z Origin {m}
    ,                        !- Type
    1,                       !- Multiplier
    ,                        !- Ceiling Height {m}
    ,                        !- Volume {m3}
    4.89;                    !- Floor Area {m2}

Zone,
    104 studio,              !- Name
    0.0,                     !- Direction of Relative North {deg}
    0.0,                     !- X Origin {m}
    0.0,                     !- Y Origin {m}
    0.0,                     !- Z Origin {m}
    ,                        !- Type
    1,                       !- Multiplier
    ,                        !- Ceiling Height {m}
    ,                        !- Volume {m3}
    26.32;                   !- Floor Area {m2}

Zone,
    104 wc,                  !- Name
    0.0,                     !- Direction of Relative North {deg}
    0.0,                     !- X Origin {m}
    0.0,                     !- Y Origin {m}
    0.0,                     !- Z Origin {m}
    ,                        !- Type
    1,                       !- Multiplier
    ,                        !- Ceiling Height {m}
    ,                        !- Volume {m3}
    3.91;                    !- Floor Area {m2}

Zone,
    103 wc,                  !- Name
    0.0,                     !- Direction of Relative North {deg}
    0.0,                     !- X Origin {m}
    0.0,                     !- Y Origin {m}
    0.0,                     !- Z Origin {m}
    ,                        !- Type
    1,                       !- Multiplier
    ,                        !- Ceiling Height {m}
    ,                        !- Volume {m3}
    3.91;                    !- Floor Area {m2}

Zone,